Circuit: * C:\Users\facud\OneDrive\Escritorio\ITBA\Primer Cuatri 2023\Física Electrónica\TP Final\Circuito BJT.asc

Warning: Multiple definitions of model "2scr375p" Type: BJT
Warning: Multiple definitions of model "bc857b" Type: BJT
Warning: Multiple definitions of model "bc847c" Type: BJT
Warning: Multiple definitions of model "bc847b" Type: BJT
Direct Newton iteration for .op point succeeded.

Date: Sun Jun 25 18:57:34 2023
Total elapsed time: 7.384 seconds.

tnom = 27
temp = 27
method = modified trap
totiter = 800051
traniter = 800040
tranpoints = 400021
accept = 400021
rejected = 0
matrix size = 9
fillins = 0
solver = Normal
Avg thread counts: 1.0/1.0/1.0/1.0
Matrix Compiler1: 474 bytes object code size  0.2/0.2/[0.2]
Matrix Compiler2: 667 bytes object code size  0.1/0.2/[0.1]

